examples/test_perturbation_outputs/pert_min_cost/pglib_opf_case118_ieee.m
%% MATPOWER Case Format : Version 2
function mpc = pglib_opf_case118_ieee
mpc.version = '2';

%%-----  Power Flow Data  -----%%
%% system MVA base
mpc.baseMVA = 100.0;
%% bus data
%    bus_i    type    Pd    Qd    Gs    Bs    area    Vm    Va    baseKV    zone    Vmax    Vmin
mpc.bus = [
	1	2	51.0	27.0	0.0	0.0	1	1.0	0.0	138.0	1	1.06	0.94				
	2	1	20.0	9.0	0.0	0.0	1	1.0	0.0	138.0	1	1.06	0.94				
	3	1	39.0	10.0	0.0	0.0	1	1.0	0.0	138.0	1	1.06	0.94				
	4	2	39.0	12.0	0.0	0.0	1	1.0	0.0	138.0	1	1.06	0.94				
	5	1	0.0	0.0	0.0	-40.0	1	1.0	0.0	138.0	1	1.06	0.94				
	6	2	52.0	22.0	0.0	0.0	1	1.0	0.0	138.0	1	1.06	0.94				
	7	1	19.0	2.0	0.0	0.0	1	1.0	0.0	138.0	1	1.06	0.94				
	8	2	28.000000000000004	0.0	0.0	0.0	1	1.0	0.0	345.0	1	1.06	0.94				
	9	1	0.0	0.0	0.0	0.0	1	1.0	0.0	345.0	1	1.06	0.94				
	10	2	0.0	0.0	0.0	0.0	1	1.0	0.0	345.0	1	1.06	0.94				
	11	1	70.0	23.0	0.0	0.0	1	1.0	0.0	138.0	1	1.06	0.94				
	12	2	47.0	10.0	0.0	0.0	1	1.0	0.0	138.0	1	1.06	0.94				
	13	1	34.0	16.0	0.0	0.0	1	1.0	0.0	138.0	1	1.06	0.94				
	14	1	14.000000000000002	1.0	0.0	0.0	1	1.0	0.0	138.0	1	1.06	0.94				
	15	2	90.0	30.0	0.0	0.0	1	1.0	0.0	138.0	1	1.06	0.94				
	16	1	25.0	10.0	0.0	0.0	1	1.0	0.0	138.0	1	1.06	0.94				
	17	1	11.0	3.0	0.0	0.0	1	1.0	0.0	138.0	1	1.06	0.94				
	18	2	60.0	34.0	0.0	0.0	1	1.0	0.0	138.0	1	1.06	0.94				
	19	2	45.0	25.0	0.0	0.0	1	1.0	0.0	138.0	1	1.06	0.94				
	20	1	18.0	3.0	0.0	0.0	1	1.0	0.0	138.0	1	1.06	0.94				
	21	1	14.000000000000002	8.0	0.0	0.0	1	1.0	0.0	138.0	1	1.06	0.94				
	22	1	10.0	5.0	0.0	0.0	1	1.0	0.0	138.0	1	1.06	0.94				
	23	1	7.000000000000001	3.0	0.0	0.0	1	1.0	0.0	138.0	1	1.06	0.94				
	24	2	13.0	0.0	0.0	0.0	1	1.0	0.0	138.0	1	1.06	0.94				
	25	2	0.0	0.0	0.0	0.0	1	1.0	0.0	138.0	1	1.06	0.94				
	26	2	0.0	0.0	0.0	0.0	1	1.0	0.0	345.0	1	1.06	0.94				
	27	2	71.0	13.0	0.0	0.0	1	1.0	0.0	138.0	1	1.06	0.94				
	28	1	17.0	7.000000000000001	0.0	0.0	1	1.0	0.0	138.0	1	1.06	0.94				
	29	1	24.0	4.0	0.0	0.0	1	1.0	0.0	138.0	1	1.06	0.94				
	30	1	0.0	0.0	0.0	0.0	1	1.0	0.0	345.0	1	1.06	0.94				
	31	2	43.0	27.0	0.0	0.0	1	1.0	0.0	138.0	1	1.06	0.94				
	32	2	59.0	23.0	0.0	0.0	1	1.0	0.0	138.0	1	1.06	0.94				
	33	1	23.0	9.0	0.0	0.0	1	1.0	0.0	138.0	1	1.06	0.94				
	34	2	59.0	26.0	0.0	14.000000000000002	1	1.0	0.0	138.0	1	1.06	0.94				
	35	1	33.0	9.0	0.0	0.0	1	1.0	0.0	138.0	1	1.06	0.94				
	36	2	31.0	17.0	0.0	0.0	1	1.0	0.0	138.0	1	1.06	0.94				
	37	1	0.0	0.0	0.0	-25.0	1	1.0	0.0	138.0	1	1.06	0.94				
	38	1	0.0	0.0	0.0	0.0	1	1.0	0.0	345.0	1	1.06	0.94				
	39	1	27.0	11.0	0.0	0.0	1	1.0	0.0	138.0	1	1.06	0.94				
	40	2	66.0	23.0	0.0	0.0	1	1.0	0.0	138.0	1	1.06	0.94				
	41	1	37.0	10.0	0.0	0.0	1	1.0	0.0	138.0	1	1.06	0.94				
	42	2	96.0	23.0	0.0	0.0	1	1.0	0.0	138.0	1	1.06	0.94				
	43	1	18.0	7.000000000000001	0.0	0.0	1	1.0	0.0	138.0	1	1.06	0.94				
	44	1	16.0	8.0	0.0	10.0	1	1.0	0.0	138.0	1	1.06	0.94				
	45	1	53.0	22.0	0.0	10.0	1	1.0	0.0	138.0	1	1.06	0.94				
	46	2	28.000000000000004	10.0	0.0	10.0	1	1.0	0.0	138.0	1	1.06	0.94				
	47	1	34.0	0.0	0.0	0.0	1	1.0	0.0	138.0	1	1.06	0.94				
	48	1	20.0	11.0	0.0	15.0	1	1.0	0.0	138.0	1	1.06	0.94				
	49	2	87.0	30.0	0.0	0.0	1	1.0	0.0	138.0	1	1.06	0.94				
	50	1	17.0	4.0	0.0	0.0	1	1.0	0.0	138.0	1	1.06	0.94				
	51	1	17.0	8.0	0.0	0.0	1	1.0	0.0	138.0	1	1.06	0.94				
	52	1	18.0	5.0	0.0	0.0	1	1.0	0.0	138.0	1	1.06	0.94				
	53	1	23.0	11.0	0.0	0.0	1	1.0	0.0	138.0	1	1.06	0.94				
	54	2	112.99999999999999	32.0	0.0	0.0	1	1.0	0.0	138.0	1	1.06	0.94				
	55	2	63.0	22.0	0.0	0.0	1	1.0	0.0	138.0	1	1.06	0.94				
	56	2	84.0	18.0	0.0	0.0	1	1.0	0.0	138.0	1	1.06	0.94				
	57	1	12.0	3.0	0.0	0.0	1	1.0	0.0	138.0	1	1.06	0.94				
	58	1	12.0	3.0	0.0	0.0	1	1.0	0.0	138.0	1	1.06	0.94				
	59	2	277.0	112.99999999999999	0.0	0.0	1	1.0	0.0	138.0	1	1.06	0.94				
	60	1	78.0	3.0	0.0	0.0	1	1.0	0.0	138.0	1	1.06	0.94				
	61	2	0.0	0.0	0.0	0.0	1	1.0	0.0	138.0	1	1.06	0.94				
	62	2	77.0	14.000000000000002	0.0	0.0	1	1.0	0.0	138.0	1	1.06	0.94				
	63	1	0.0	0.0	0.0	0.0	1	1.0	0.0	345.0	1	1.06	0.94				
	64	1	0.0	0.0	0.0	0.0	1	1.0	0.0	345.0	1	1.06	0.94				
	65	2	0.0	0.0	0.0	0.0	1	1.0	0.0	345.0	1	1.06	0.94				
	66	2	39.0	18.0	0.0	0.0	1	1.0	0.0	138.0	1	1.06	0.94				
	67	1	28.000000000000004	7.000000000000001	0.0	0.0	1	1.0	0.0	138.0	1	1.06	0.94				
	68	1	0.0	0.0	0.0	0.0	1	1.0	0.0	345.0	1	1.06	0.94				
	69	3	0.0	0.0	0.0	0.0	1	1.0	0.0	138.0	1	1.06	0.94				
	70	2	66.0	20.0	0.0	0.0	1	1.0	0.0	138.0	1	1.06	0.94				
	71	1	0.0	0.0	0.0	0.0	1	1.0	0.0	138.0	1	1.06	0.94				
	72	2	12.0	0.0	0.0	0.0	1	1.0	0.0	138.0	1	1.06	0.94				
	73	2	6.0	0.0	0.0	0.0	1	1.0	0.0	138.0	1	1.06	0.94				
	74	2	68.0	27.0	0.0	12.0	1	1.0	0.0	138.0	1	1.06	0.94				
	75	1	47.0	11.0	0.0	0.0	1	1.0	0.0	138.0	1	1.06	0.94				
	76	2	68.0	36.0	0.0	0.0	1	1.0	0.0	138.0	1	1.06	0.94				
	77	2	61.0	28.000000000000004	0.0	0.0	1	1.0	0.0	138.0	1	1.06	0.94				
	78	1	71.0	26.0	0.0	0.0	1	1.0	0.0	138.0	1	1.06	0.94				
	79	1	39.0	32.0	0.0	20.0	1	1.0	0.0	138.0	1	1.06	0.94				
	80	2	130.0	26.0	0.0	0.0	1	1.0	0.0	138.0	1	1.06	0.94				
	81	1	0.0	0.0	0.0	0.0	1	1.0	0.0	345.0	1	1.06	0.94				
	82	1	54.0	27.0	0.0	20.0	1	1.0	0.0	138.0	1	1.06	0.94				
	83	1	20.0	10.0	0.0	10.0	1	1.0	0.0	138.0	1	1.06	0.94				
	84	1	11.0	7.000000000000001	0.0	0.0	1	1.0	0.0	138.0	1	1.06	0.94				
	85	2	24.0	15.0	0.0	0.0	1	1.0	0.0	138.0	1	1.06	0.94				
	86	1	21.0	10.0	0.0	0.0	1	1.0	0.0	138.0	1	1.06	0.94				
	87	2	0.0	0.0	0.0	0.0	1	1.0	0.0	161.0	1	1.06	0.94				
	88	1	48.0	10.0	0.0	0.0	1	1.0	0.0	138.0	1	1.06	0.94				
	89	2	0.0	0.0	0.0	0.0	1	1.0	0.0	138.0	1	1.06	0.94				
	90	2	163.0	42.0	0.0	0.0	1	1.0	0.0	138.0	1	1.06	0.94				
	91	2	10.0	0.0	0.0	0.0	1	1.0	0.0	138.0	1	1.06	0.94				
	92	2	65.0	10.0	0.0	0.0	1	1.0	0.0	138.0	1	1.06	0.94				
	93	1	12.0	7.000000000000001	0.0	0.0	1	1.0	0.0	138.0	1	1.06	0.94				
	94	1	30.0	16.0	0.0	0.0	1	1.0	0.0	138.0	1	1.06	0.94				
	95	1	42.0	31.0	0.0	0.0	1	1.0	0.0	138.0	1	1.06	0.94				
	96	1	38.0	15.0	0.0	0.0	1	1.0	0.0	138.0	1	1.06	0.94				
	97	1	15.0	9.0	0.0	0.0	1	1.0	0.0	138.0	1	1.06	0.94				
	98	1	34.0	8.0	0.0	0.0	1	1.0	0.0	138.0	1	1.06	0.94				
	99	2	42.0	0.0	0.0	0.0	1	1.0	0.0	138.0	1	1.06	0.94				
	100	2	37.0	18.0	0.0	0.0	1	1.0	0.0	138.0	1	1.06	0.94				
	101	1	22.0	15.0	0.0	0.0	1	1.0	0.0	138.0	1	1.06	0.94				
	102	1	5.0	3.0	0.0	0.0	1	1.0	0.0	138.0	1	1.06	0.94				
	103	2	23.0	16.0	0.0	0.0	1	1.0	0.0	138.0	1	1.06	0.94				
	104	2	38.0	25.0	0.0	0.0	1	1.0	0.0	138.0	1	1.06	0.94				
	105	2	31.0	26.0	0.0	20.0	1	1.0	0.0	138.0	1	1.06	0.94				
	106	1	43.0	16.0	0.0	0.0	1	1.0	0.0	138.0	1	1.06	0.94				
	107	2	50.0	12.0	0.0	6.0	1	1.0	0.0	138.0	1	1.06	0.94				
	108	1	2.0	1.0	0.0	0.0	1	1.0	0.0	138.0	1	1.06	0.94				
	109	1	8.0	3.0	0.0	0.0	1	1.0	0.0	138.0	1	1.06	0.94				
	110	2	39.0	30.0	0.0	6.0	1	1.0	0.0	138.0	1	1.06	0.94				
	111	2	0.0	0.0	0.0	0.0	1	1.0	0.0	138.0	1	1.06	0.94				
	112	2	68.0	13.0	0.0	0.0	1	1.0	0.0	138.0	1	1.06	0.94				
	113	2	6.0	0.0	0.0	0.0	1	1.0	0.0	138.0	1	1.06	0.94				
	114	1	8.0	3.0	0.0	0.0	1	1.0	0.0	138.0	1	1.06	0.94				
	115	1	22.0	7.000000000000001	0.0	0.0	1	1.0	0.0	138.0	1	1.06	0.94				
	116	2	184.0	0.0	0.0	0.0	1	1.0	0.0	138.0	1	1.06	0.94				
	117	1	20.0	8.0	0.0	0.0	1	1.0	0.0	138.0	1	1.06	0.94				
	118	1	33.0	15.0	0.0	0.0	1	1.0	0.0	138.0	1	1.06	0.94				
];

%% generator data
%    bus    Pg    Qg    Qmax    Qmin    Vg    mBase    status    Pmax    Pmin    Pc1    Pc2    Qc1min    Qc1max    Qc2min    Qc2max    ramp_agc    ramp_10    ramp_30    ramp_q    apf
mpc.gen = [
	1	0.0	5.0	15.0	-5.0	1.0	100.0	1	0.0	0.0															
	4	0.0	0.0	300.0	-300.0	1.0	100.0	1	0.0	0.0															
	6	0.0	18.5	50.0	-13.0	1.0	100.0	1	0.0	0.0															
	8	0.0	0.0	300.0	-300.0	1.0	100.0	1	0.0	0.0															
	10	252.5	26.5	200.0	-147.0	1.0	100.0	1	505.0	0.0															
	12	42.5	4.0	43.0	-35.0	1.0	100.0	1	85.0	0.0															
	15	0.0	10.0	30.0	-10.0	1.0	100.0	1	0.0	0.0															
	18	0.0	17.0	50.0	-16.0	1.0	100.0	1	0.0	0.0															
	19	0.0	8.0	24.0	-8.0	1.0	100.0	1	0.0	0.0															
	24	0.0	0.0	300.0	-300.0	1.0	100.0	1	0.0	0.0															
	25	110.5	32.0	111.00000000000001	-47.0	1.0	100.0	1	221.0	0.0															
	26	242.49999999999997	0.0	243.00000000000003	-243.00000000000003	1.0	100.0	1	484.99999999999994	0.0															
	27	0.0	0.0	300.0	-300.0	1.0	100.0	1	0.0	0.0															
	31	8.5	0.0	9.0	-9.0	1.0	100.0	1	17.0	0.0															
	32	0.0	14.000000000000002	42.0	-14.000000000000002	1.0	100.0	1	0.0	0.0															
	34	0.0	8.0	24.0	-8.0	1.0	100.0	1	0.0	0.0															
	36	0.0	8.0	24.0	-8.0	1.0	100.0	1	0.0	0.0															
	40	0.0	0.0	300.0	-300.0	1.0	100.0	1	0.0	0.0															
	42	0.0	0.0	300.0	-300.0	1.0	100.0	1	0.0	0.0															
	46	10.0	0.0	10.0	-10.0	1.0	100.0	1	20.0	0.0															
	49	111.5	13.5	112.00000000000001	-85.0	1.0	100.0	1	223.0	0.0															
	54	26.5	0.0	27.0	-27.0	1.0	100.0	1	53.0	0.0															
	55	0.0	7.5	23.0	-8.0	1.0	100.0	1	0.0	0.0															
	56	0.0	3.5000000000000004	15.0	-8.0	1.0	100.0	1	0.0	0.0															
	59	154.0	47.0	154.0	-60.0	1.0	100.0	1	308.0	0.0															
	61	97.5	0.0	98.0	-98.0	1.0	100.0	1	195.0	0.0															
	62	0.0	0.0	20.0	-20.0	1.0	100.0	1	0.0	0.0															
	65	220.5	66.5	200.0	-67.0	1.0	100.0	1	441.0	0.0															
	66	392.0	66.5	200.0	-67.0	1.0	100.0	1	784.0	0.0															
	69	591.0	0.0	300.0	-300.0	1.0	100.0	1	1182.0	0.0															
	70	0.0	11.0	32.0	-10.0	1.0	100.0	1	0.0	0.0															
	72	0.0	0.0	100.0	-100.0	1.0	100.0	1	0.0	0.0															
	73	0.0	0.0	100.0	-100.0	1.0	100.0	1	0.0	0.0															
	74	0.0	1.5	9.0	-6.0	1.0	100.0	1	0.0	0.0															
	76	0.0	7.5	23.0	-8.0	1.0	100.0	1	0.0	0.0															
	77	0.0	25.0	70.0	-20.0	1.0	100.0	1	0.0	0.0															
	80	254.5	45.0	254.99999999999997	-165.0	1.0	100.0	1	509.0	0.0															
	85	0.0	7.5	23.0	-8.0	1.0	100.0	1	0.0	0.0															
	87	5.0	0.0	5.0	-5.0	1.0	100.0	1	10.0	0.0															
	89	318.5	45.0	300.0	-210.0	1.0	100.0	1	637.0	0.0															
	90	0.0	0.0	300.0	-300.0	1.0	100.0	1	0.0	0.0															
	91	0.0	0.0	100.0	-100.0	1.0	100.0	1	0.0	0.0															
	92	0.0	3.0	9.0	-3.0	1.0	100.0	1	0.0	0.0															
	99	0.0	0.0	100.0	-100.0	1.0	100.0	1	0.0	0.0															
	100	326.5	52.5	155.0	-50.0	1.0	100.0	1	653.0	0.0															
	103	54.0	12.5	40.0	-15.0	1.0	100.0	1	108.0	0.0															
	104	0.0	7.5	23.0	-8.0	1.0	100.0	1	0.0	0.0															
	105	0.0	7.5	23.0	-8.0	1.0	100.0	1	0.0	0.0															
	107	0.0	0.0	200.0	-200.0	1.0	100.0	1	0.0	0.0															
	110	0.0	7.5	23.0	-8.0	1.0	100.0	1	0.0	0.0															
	111	39.5	0.0	40.0	-40.0	1.0	100.0	1	79.0	0.0															
	112	0.0	450.0	1000.0	-100.0	1.0	100.0	1	0.0	0.0															
	113	0.0	50.0	200.0	-100.0	1.0	100.0	1	0.0	0.0															
	116	0.0	0.0	1000.0	-1000.0	1.0	100.0	1	0.0	0.0															
];

%% branch data
%    f_bus    t_bus    r    x    b    rateA    rateB    rateC    ratio    angle    status    angmin    angmax
mpc.branch = [
	1	2	0.029928491473602357	0.0986751252858072	0.22653947557793727	151.0	151.0	151.0	0	0	1	-29.999999999999996	29.999999999999996								
	1	3	0.013016667094307932	0.04278346393279807	0.025407724834814526	151.0	151.0	151.0	0	0	1	-29.999999999999996	29.999999999999996								
	4	5	0.001760265430310491	0.007981203485101966	0.03747384265247385	176.0	176.0	176.0	0	0	1	-29.999999999999996	29.999999999999996								
	3	5	0.02537672152264161	0.11372140752061534	0.0015737523198194074	175.0	175.0	175.0	0	0	1	-29.999999999999996	29.999999999999996								
	5	6	0.011937786933398744	0.05417147009967449	0.013700434189686018	176.0	176.0	176.0	0	0	1	-29.999999999999996	29.999999999999996								
	6	7	0.00457702122114911	0.0207411854890682	0.0015684883857421741	176.0	176.0	176.0	0	0	1	-29.999999999999996	29.999999999999996								
	8	9	0.0024092317087634238	0.03011539634622755	1.1591561074331531	711.0	711.0	711.0	0	0	1	-29.999999999999996	29.999999999999996								
	8	5	5.556862673308459e-5	0.026709252777409823	0.115637762075218	1099.0	1099.0	1099.0	0.985	0.0	1	-29.999999999999996	29.999999999999996								
	9	10	0.0026516690132279753	0.0330944737066212	1.103521781084522	710.0	710.0	710.0	0	0	1	-29.999999999999996	29.999999999999996								
	4	11	0.020877737505100066	0.06872671483914189	0.0015687811325342466	151.0	151.0	151.0	0	0	1	-29.999999999999996	29.999999999999996								
	5	11	0.02024838969062034	0.06802660968310846	0.018965420551969342	152.0	152.0	152.0	0	0	1	-29.999999999999996	29.999999999999996								
	11	12	0.005954032571167623	0.01961328376337333	0.003424787360008671	151.0	151.0	151.0	0	0	1	-29.999999999999996	29.999999999999996								
	2	12	0.018581271161099592	0.061208893222144456	0.0015694587957179478	151.0	151.0	151.0	0	0	1	-29.999999999999996	29.999999999999996								
	3	12	0.04731380695458157	0.15640927891509834	0.05923381189821086	151.0	151.0	151.0	0	0	1	-29.999999999999996	29.999999999999996								
	7	12	0.008575331923605867	0.03382381500810665	0.017804252765172772	164.0	164.0	164.0	0	0	1	-29.999999999999996	29.999999999999996								
	11	13	0.022263577420998173	0.07314460714137092	0.001569640006360909	151.0	151.0	151.0	0	0	1	-29.999999999999996	29.999999999999996								
	12	14	0.021497781506563337	0.07069270474280673	0.0015693839300984652	151.0	151.0	151.0	0	0	1	-29.999999999999996	29.999999999999996								
	13	15	0.07341874401245362	0.24117662577044988	0.04035193302245246	114.99999999999999	114.99999999999999	114.99999999999999	0	0	1	-29.999999999999996	29.999999999999996								
	14	15	0.06145332345089231	0.20140164766399613	0.02821987679428259	144.0	144.0	144.0	0	0	1	-29.999999999999996	29.999999999999996								
	12	16	0.02127108642019044	0.08367965123366523	0.03503036700921591	164.0	164.0	164.0	0	0	1	-29.999999999999996	29.999999999999996								
	15	17	0.013316338906786343	0.0440851522854713	0.037091772852739874	151.0	151.0	151.0	0	0	1	-29.999999999999996	29.999999999999996								
	16	17	0.04565595029089079	0.18111534403064325	0.0693533323179575	158.0	158.0	158.0	0	0	1	-29.999999999999996	29.999999999999996								
	17	18	0.012298264603849397	0.05049287498662858	0.05526708327851723	167.0	167.0	167.0	0	0	1	-29.999999999999996	29.999999999999996								
	18	19	0.011224098395708239	0.04945022794820606	0.060356999364877977	173.0	173.0	173.0	0	0	1	-29.999999999999996	29.999999999999996								
	19	20	0.025046053585726324	0.11628524856157194	0.04236585103949593	178.0	178.0	178.0	0	0	1	-29.999999999999996	29.999999999999996								
	15	19	0.01212477990713683	0.03980969402405216	0.054295831851729134	151.0	151.0	151.0	0	0	1	-29.999999999999996	29.999999999999996								
	20	21	0.018241357525557698	0.08462793728819393	0.001569003463686392	177.0	177.0	177.0	0	0	1	-29.999999999999996	29.999999999999996								
	21	22	0.020936952086705252	0.09717149999740406	0.13112933602586624	178.0	178.0	178.0	0	0	1	-29.999999999999996	29.999999999999996								
	22	23	0.0339160283941063	0.15767978070755898	0.0015690836121716825	178.0	178.0	178.0	0	0	1	-29.999999999999996	29.999999999999996								
	23	24	0.0133972954446867	0.048825698943925355	0.013185350587643847	158.0	158.0	158.0	0	0	1	-29.999999999999996	29.999999999999996								
	23	25	0.016052730859258554	0.08232169665094292	0.045650388260546605	186.0	186.0	186.0	0	0	1	-29.999999999999996	29.999999999999996								
	26	25	0.0001138935709219303	0.03823803131097252	0.0015723907429089667	768.0	768.0	768.0	0.96	0.0	1	-29.999999999999996	29.999999999999996								
	25	27	0.0317626050379577	0.1628083210775464	0.2122257711278092	177.0	177.0	177.0	0	0	1	-29.999999999999996	29.999999999999996								
	27	28	0.019371200130240514	0.08657802454532547	0.06745527097717181	174.0	174.0	174.0	0	0	1	-29.999999999999996	29.999999999999996								
	28	29	0.023457334009282797	0.09333445548741554	0.03231981851506407	165.0	165.0	165.0	0	0	1	-29.999999999999996	29.999999999999996								
	30	17	0.00011704024880682774	0.03876265221011928	0.001568845617129481	756.0	756.0	756.0	0.96	0.0	1	-29.999999999999996	29.999999999999996								
	8	30	0.004383391999483077	0.05125822650841698	0.5789399576333107	580.0	580.0	580.0	0	0	1	-29.999999999999996	29.999999999999996								
	26	30	0.007770192014247097	0.08363410643732914	1.1540499130906618	340.0	340.0	340.0	0	0	1	-29.999999999999996	29.999999999999996								
	17	31	0.04795777045891519	0.15813923012921685	0.0015695482538374088	151.0	151.0	151.0	0	0	1	-29.999999999999996	29.999999999999996								
	29	31	0.01082029069023179	0.0331621872058245	0.1533534975688264	146.0	146.0	146.0	0	0	1	-29.999999999999996	29.999999999999996								
	23	32	0.031876795368026366	0.11594304424699745	0.0015688988388886987	158.0	158.0	158.0	0	0	1	-29.999999999999996	29.999999999999996								
	31	32	0.02960036395591349	0.09784012911569946	0.47877609545522914	151.0	151.0	151.0	0	0	1	-29.999999999999996	29.999999999999996								
	27	32	0.02273149065608247	0.0749444342287476	0.03829789683013882	151.0	151.0	151.0	0	0	1	-29.999999999999996	29.999999999999996								
	15	33	0.03770265357340931	0.12342658154810215	0.07359980654369376	150.0	150.0	150.0	0	0	1	-29.999999999999996	29.999999999999996								
	19	34	0.07651164626205913	0.25130819864838144	0.001569617229363992	113.99999999999999	113.99999999999999	113.99999999999999	0	0	1	-29.999999999999996	29.999999999999996								
	35	36	0.002238958250842284	0.010195256320674589	0.16652201252353188	176.0	176.0	176.0	0	0	1	-29.999999999999996	29.999999999999996								
	35	37	0.011033463176123604	0.049851192696901456	0.0015684902002778727	175.0	175.0	175.0	0	0	1	-29.999999999999996	29.999999999999996								
	33	37	0.04001179476214347	0.13690782765207882	0.10606663785440143	154.0	154.0	154.0	0	0	1	-29.999999999999996	29.999999999999996								
	34	36	0.00865326341371423	0.02662542588715665	0.17376319649099473	146.0	146.0	146.0	0	0	1	-29.999999999999996	29.999999999999996								
	34	37	0.002566708915166752	0.009424634297811098	0.0015688684379651888	159.0	159.0	159.0	0	0	1	-29.999999999999996	29.999999999999996								
	38	37	0.00010944926535120656	0.03748456024582565	0.10003333066047769	783.0	783.0	783.0	0.935	0.0	1	-29.999999999999996	29.999999999999996								
	37	39	0.03178986643491691	0.10497588286353501	0.06297485675702458	151.0	151.0	151.0	0	0	1	-29.999999999999996	29.999999999999996								
	37	40	0.058691947756413065	0.16627735602761845	0.01249859338122496	140.0	140.0	140.0	0	0	1	-29.999999999999996	29.999999999999996								
	30	38	0.004789758276227366	0.055742876332813995	0.5244673095112695	542.0	542.0	542.0	0	0	1	-29.999999999999996	29.999999999999996								
	39	40	0.018518244484355784	0.06088879298995054	0.12246651168312979	151.0	151.0	151.0	0	0	1	-29.999999999999996	29.999999999999996								
	40	41	0.014450601801231273	0.04853409017917279	0.0017945913739648917	152.0	152.0	152.0	0	0	1	-29.999999999999996	29.999999999999996								
	40	42	0.05428179313885204	0.17898320937042006	0.09737584827208876	151.0	151.0	151.0	0	0	1	-29.999999999999996	29.999999999999996								
	41	42	0.040753553987013275	0.13418853125599045	0.006439255512652324	151.0	151.0	151.0	0	0	1	-29.999999999999996	29.999999999999996								
	43	44	0.05976451486918279	0.24122058966476004	0.1536842372657376	117.0	117.0	117.0	0	0	1	-29.999999999999996	29.999999999999996								
	34	43	0.04161371616998314	0.16937689262791714	0.13133133992480855	167.0	167.0	167.0	0	0	1	-29.999999999999996	29.999999999999996								
	44	45	0.02187752940584322	0.08799845526045824	0.02097433776221164	166.0	166.0	166.0	0	0	1	-29.999999999999996	29.999999999999996								
	45	46	0.04110968932829717	0.13936184662321754	0.0015698642621490356	153.0	153.0	153.0	0	0	1	-29.999999999999996	29.999999999999996								
	46	47	0.0374772271208551	0.12525283786128508	0.1088402664797775	152.0	152.0	152.0	0	0	1	-29.999999999999996	29.999999999999996								
	46	48	0.061327300963274205	0.19285956493207226	0.006430749355697095	148.0	148.0	148.0	0	0	1	-29.999999999999996	29.999999999999996								
	47	49	0.019315693102746664	0.06320580201937916	0.020175466566624414	150.0	150.0	150.0	0	0	1	-29.999999999999996	29.999999999999996								
	42	49	0.06841600289409146	0.3090680944438225	0.0015691259256874846	89.0	89.0	89.0	0	0	1	-29.999999999999996	29.999999999999996								
	42	49	0.07314147402922115	0.3304153271218082	0.2622507599694078	89.0	89.0	89.0	0	0	1	-29.999999999999996	29.999999999999996								
	45	49	0.0668696435567039	0.18183850410934896	0.0015684448272163692	138.0	138.0	138.0	0	0	1	-29.999999999999996	29.999999999999996								
	48	49	0.01792717484261739	0.05057666644817151	0.08924976687804577	140.0	140.0	140.0	0	0	1	-29.999999999999996	29.999999999999996								
	49	50	0.026629412559322094	0.07500119190835165	0.1724976156399714	140.0	140.0	140.0	0	0	1	-29.999999999999996	29.999999999999996								
	49	51	0.048731633090933424	0.13737106449076072	0.0015722229727698931	140.0	140.0	140.0	0	0	1	-29.999999999999996	29.999999999999996								
	51	52	0.02016743069813081	0.058416006150464155	0.05358717388825681	142.0	142.0	142.0	0	0	1	-29.999999999999996	29.999999999999996								
	52	53	0.04088489111515355	0.16505381919065593	0.041761378047821256	166.0	166.0	166.0	0	0	1	-29.999999999999996	29.999999999999996								
	53	54	0.026218329504013878	0.12162114803229945	0.044744088602277465	177.0	177.0	177.0	0	0	1	-29.999999999999996	29.999999999999996								
	49	54	0.07254039155504566	0.2871804523101793	0.0638764292412657	99.0	99.0	99.0	0	0	1	-29.999999999999996	29.999999999999996								
	49	54	0.08441183427338542	0.2826679363821643	0.0015684322680837514	97.0	97.0	97.0	0	0	1	-29.999999999999996	29.999999999999996								
	54	55	0.016881441970366475	0.07062236370555858	0.03258234767612171	169.0	169.0	169.0	0	0	1	-29.999999999999996	29.999999999999996								
	54	56	0.0027511164231616434	0.009553877033103345	0.005584661239896922	155.0	155.0	155.0	0	0	1	-29.999999999999996	29.999999999999996								
	55	56	0.0048783722739808326	0.015094963388556615	0.048757729734055774	146.0	146.0	146.0	0	0	1	-29.999999999999996	29.999999999999996								
	56	57	0.03413488290993137	0.09613497631318671	0.0015684065983900262	140.0	140.0	140.0	0	0	1	-29.999999999999996	29.999999999999996								
	50	57	0.047546512872584434	0.13441419240513455	0.06564371308392922	140.0	140.0	140.0	0	0	1	-29.999999999999996	29.999999999999996								
	56	58	0.03405831374857696	0.09591933254947085	0.018285239550858024	140.0	140.0	140.0	0	0	1	-29.999999999999996	29.999999999999996								
	51	58	0.025790350050294012	0.0727186732584214	0.0015686495854355933	140.0	140.0	140.0	0	0	1	-29.999999999999996	29.999999999999996								
	54	59	0.04942536158528019	0.2253128299758545	0.0015775104075758755	125.0	125.0	125.0	0	0	1	-29.999999999999996	29.999999999999996								
	56	59	0.0876434647319059	0.266648600968233	0.047411365967073	112.00000000000001	112.00000000000001	112.00000000000001	0	0	1	-29.999999999999996	29.999999999999996								
	56	59	0.07774381314365869	0.23139192161105157	0.3738024696509225	117.0	117.0	117.0	0	0	1	-29.999999999999996	29.999999999999996								
	55	59	0.047642862651342675	0.21695146036297527	0.12239224181513302	133.0	133.0	133.0	0	0	1	-29.999999999999996	29.999999999999996								
	59	60	0.03201718817758355	0.14645086035584418	0.0015704353066852757	176.0	176.0	176.0	0	0	1	-29.999999999999996	29.999999999999996								
	59	61	0.03304632987686328	0.15112650817108372	0.2693895532904884	176.0	176.0	176.0	0	0	1	-29.999999999999996	29.999999999999996								
	60	61	0.0026400546762184304	0.013500279593911094	0.0052995597388193665	186.0	186.0	186.0	0	0	1	-29.999999999999996	29.999999999999996								
	60	62	0.012405356719491275	0.056580529403365346	0.19915667647825866	176.0	176.0	176.0	0	0	1	-29.999999999999996	29.999999999999996								
	61	62	0.008321530712823478	0.037972033342379	0.14074679298593723	176.0	176.0	176.0	0	0	1	-29.999999999999996	29.999999999999996								
	63	59	0.00011676543327973193	0.038717117693856766	0.023761109027572662	760.0	760.0	760.0	0.96	0.0	1	-29.999999999999996	29.999999999999996								
	63	64	0.00172713789664029	0.020082998791562084	0.24438742519839063	687.0	687.0	687.0	0	0	1	-29.999999999999996	29.999999999999996								
	64	61	5.592941936888692e-5	0.026795820227230413	0.07690291884583883	1095.0	1095.0	1095.0	0.985	0.0	1	-29.999999999999996	29.999999999999996								
	38	65	0.009080896240457128	0.09937584489735235	1.0022297025987	297.0	297.0	297.0	0	0	1	-29.999999999999996	29.999999999999996								
	64	65	0.0027478067878404532	0.030848983245958077	0.3674644979818178	675.0	675.0	675.0	0	0	1	-29.999999999999996	29.999999999999996								
	49	66	0.01793680446545722	0.09157735161448505	0.0015705500760048868	186.0	186.0	186.0	0	0	1	-29.999999999999996	29.999999999999996								
	49	66	0.01789134499247823	0.09134525575040035	0.0015689064629410324	186.0	186.0	186.0	0	0	1	-29.999999999999996	29.999999999999996								
	62	66	0.0484199276680246	0.2189946920718981	0.0015703431562502273	132.0	132.0	132.0	0	0	1	-29.999999999999996	29.999999999999996								
	62	67	0.02572805308577968	0.11667372890119318	0.20701070281245088	176.0	176.0	176.0	0	0	1	-29.999999999999996	29.999999999999996								
	65	66	0.00010709952012946845	0.03708000611020031	0.025888967474810468	793.0	793.0	793.0	0.935	0.0	1	-29.999999999999996	29.999999999999996								
	66	67	0.022779801454409665	0.10322097516849328	0.05900880642496688	176.0	176.0	176.0	0	0	1	-29.999999999999996	29.999999999999996								
	65	68	0.001386706837285354	0.016077760428996286	0.7186436713836993	686.0	686.0	686.0	0	0	1	-29.999999999999996	29.999999999999996								
	47	69	0.08230064990451547	0.27089005232095814	0.09643273423097776	102.0	102.0	102.0	0	0	1	-29.999999999999996	29.999999999999996								
	49	69	0.10492614529023479	0.34513777442119004	0.16513301371959307	87.0	87.0	87.0	0	0	1	-29.999999999999996	29.999999999999996								
	68	69	0.0001066069329182249	0.036994636749583414	0.001568466182016273	793.0	793.0	793.0	0.935	0.0	1	-29.999999999999996	29.999999999999996								
	69	70	0.030336774830289872	0.12842567998361962	0.1385179087546613	170.0	170.0	170.0	0	0	1	-29.999999999999996	29.999999999999996								
	24	70	0.003193990033065958	0.20246990513446794	0.4074616781197673	72.0	72.0	72.0	0	0	1	-29.999999999999996	29.999999999999996								
	70	71	0.008843464337815493	0.03559444262481197	0.0015695729125283914	166.0	166.0	166.0	0	0	1	-29.999999999999996	29.999999999999996								
	24	72	0.04953626504587877	0.198957129223317	0.02328735181070586	146.0	146.0	146.0	0	0	1	-29.999999999999996	29.999999999999996								
	71	72	0.04693536225721282	0.18942522807147802	0.04016280232621767	159.0	159.0	159.0	0	0	1	-29.999999999999996	29.999999999999996								
	71	73	0.008670495578980943	0.045455022995762165	0.0015683438351815156	188.0	188.0	188.0	0	0	1	-29.999999999999996	29.999999999999996								
	70	74	0.03993912449220907	0.1317692310087412	0.05867622390225267	151.0	151.0	151.0	0	0	1	-29.999999999999996	29.999999999999996								
	70	75	0.043552782413846955	0.14347996052280565	0.05745612572239466	151.0	151.0	151.0	0	0	1	-29.999999999999996	29.999999999999996								
	69	75	0.0396656691964783	0.11948670728000635	0.1048869030688978	145.0	145.0	145.0	0	0	1	-29.999999999999996	29.999999999999996								
	74	75	0.012389828301444056	0.04089650642131483	0.0015706354433563134	151.0	151.0	151.0	0	0	1	-29.999999999999996	29.999999999999996								
	76	77	0.04413826623527064	0.14712755411939232	0.0015686925967847661	152.0	152.0	152.0	0	0	1	-29.999999999999996	29.999999999999996								
	69	77	0.030805170177817847	0.10069003838690775	0.12250945322246319	150.0	150.0	150.0	0	0	1	-29.999999999999996	29.999999999999996								
	75	77	0.06139986277971219	0.20422350315234178	0.12635337465933888	141.0	141.0	141.0	0	0	1	-29.999999999999996	29.999999999999996								
	77	78	0.0037618634869630357	0.012406145541992748	0.0025460682856454663	151.0	151.0	151.0	0	0	1	-29.999999999999996	29.999999999999996								
	78	79	0.005467236211316402	0.024432337645833142	0.0025018973456277047	174.0	174.0	174.0	0	0	1	-29.999999999999996	29.999999999999996								
	77	80	0.017055512203752374	0.04865837304800604	0.00156955994257652	141.0	141.0	141.0	0	0	1	-29.999999999999996	29.999999999999996								
	77	80	0.029306503912612254	0.10466608531161997	0.02131705896405088	157.0	157.0	157.0	0	0	1	-29.999999999999996	29.999999999999996								
	79	80	0.015563181109805235	0.0702338429130444	0.22607714839003235	175.0	175.0	175.0	0	0	1	-29.999999999999996	29.999999999999996								
	68	81	0.0017415146899310994	0.02010205527135819	0.7556432717289405	684.0	684.0	684.0	0	0	1	-29.999999999999996	29.999999999999996								
	81	80	0.00010682153064901084	0.03703185247119616	0.0015714793618632678	793.0	793.0	793.0	0.935	0.0	1	-29.999999999999996	29.999999999999996								
	77	82	0.03032837183170484	0.08681242000248897	0.06306861076793406	141.0	141.0	141.0	0	0	1	-29.999999999999996	29.999999999999996								
	82	83	0.011128086156275382	0.0364146747847675	0.05709848394480199	150.0	150.0	150.0	0	0	1	-29.999999999999996	29.999999999999996								
	83	84	0.06224468820129248	0.1314607814109864	0.10428094822166295	122.0	122.0	122.0	0	0	1	-29.999999999999996	29.999999999999996								
	83	85	0.04569240502980731	0.15726688211802128	0.21649810156647145	154.0	154.0	154.0	0	0	1	-29.999999999999996	29.999999999999996								
	84	85	0.030018960951286037	0.06371574161369882	0.09554338708886397	122.0	122.0	122.0	0	0	1	-29.999999999999996	29.999999999999996								
	85	86	0.03580298021235856	0.12582190171949023	0.1596116234225555	156.0	156.0	156.0	0	0	1	-29.999999999999996	29.999999999999996								
	86	87	0.028043857202469297	0.20566817150408775	0.0015704103113764205	141.0	141.0	141.0	1.0	0.0	1	-29.999999999999996	29.999999999999996								
	85	88	0.019257362974412166	0.0982125510057223	0.019686197773376594	186.0	186.0	186.0	0	0	1	-29.999999999999996	29.999999999999996								
	85	89	0.023538639862469835	0.17038429506731134	0.06806186958937353	168.0	168.0	168.0	0	0	1	-29.999999999999996	29.999999999999996								
	88	89	0.014056790398092961	0.07200312772893579	0.0015689416923246545	186.0	186.0	186.0	0	0	1	-29.999999999999996	29.999999999999996								
	89	90	0.051978524416445904	0.1886479259044848	0.0586247961363736	151.0	151.0	151.0	0	0	1	-29.999999999999996	29.999999999999996								
	89	90	0.02393242522884758	0.10025473919804519	0.08482779036395474	169.0	169.0	169.0	0	0	1	-29.999999999999996	29.999999999999996								
	90	91	0.025566157393806067	0.08414688019782379	0.0015824304923342007	151.0	151.0	151.0	0	0	1	-29.999999999999996	29.999999999999996								
	89	92	0.010092992997292818	0.05148445920723253	0.0015689327494976494	186.0	186.0	186.0	0	0	1	-29.999999999999996	29.999999999999996								
	89	92	0.039428021273228586	0.15861501645110893	0.0015684390556030842	166.0	166.0	166.0	0	0	1	-29.999999999999996	29.999999999999996								
	91	92	0.03942114304910269	0.12957026847023115	0.04670631436305094	151.0	151.0	151.0	0	0	1	-29.999999999999996	29.999999999999996								
	92	93	0.02579726634018082	0.0847910149046429	0.0015688472504327886	151.0	151.0	151.0	0	0	1	-29.999999999999996	29.999999999999996								
	92	94	0.047929638451301604	0.15744039213440736	0.0015684022186230034	151.0	151.0	151.0	0	0	1	-29.999999999999996	29.999999999999996								
	93	94	0.022235408181310066	0.07298797660320265	0.0015690985715792632	151.0	151.0	151.0	0	0	1	-29.999999999999996	29.999999999999996								
	94	95	0.013355634530485128	0.0439117074658982	0.0015687616342675566	151.0	151.0	151.0	0	0	1	-29.999999999999996	29.999999999999996								
	80	96	0.035306354136778795	0.18049877569598957	0.17194948428450796	159.0	159.0	159.0	0	0	1	-29.999999999999996	29.999999999999996								
	82	96	0.01629390416195544	0.053307217309590656	0.0015683763859972398	150.0	150.0	150.0	0	0	1	-29.999999999999996	29.999999999999996								
	94	96	0.027272140671519587	0.08810219416647534	0.02880276038715773	149.0	149.0	149.0	0	0	1	-29.999999999999996	29.999999999999996								
	80	97	0.016664534239909504	0.08505286863627383	0.001568722295110515	186.0	186.0	186.0	0	0	1	-29.999999999999996	29.999999999999996								
	80	98	0.02356014867225555	0.10691159884491405	0.02171189239608733	176.0	176.0	176.0	0	0	1	-29.999999999999996	29.999999999999996								
	80	99	0.04485429487658165	0.2035238918475604	0.09102713380783505	140.0	140.0	140.0	0	0	1	-29.999999999999996	29.999999999999996								
	92	100	0.05811549945896926	0.2645690148508895	0.11412435280385323	98.0	98.0	98.0	0	0	1	-29.999999999999996	29.999999999999996								
	94	100	0.017902886028545124	0.05833524659815328	0.001568567238716784	150.0	150.0	150.0	0	0	1	-29.999999999999996	29.999999999999996								
	95	96	0.01716068664084684	0.05489412626054131	0.0015710819198655097	149.0	149.0	149.0	0	0	1	-29.999999999999996	29.999999999999996								
	96	97	0.017074053498646043	0.08734414639641498	0.07516046683307134	186.0	186.0	186.0	0	0	1	-29.999999999999996	29.999999999999996								
	98	100	0.03961976648245368	0.17863824101929662	0.13749158570022219	160.0	160.0	160.0	0	0	1	-29.999999999999996	29.999999999999996								
	99	100	0.017518339538357658	0.07912450018165186	0.0015684474713758881	175.0	175.0	175.0	0	0	1	-29.999999999999996	29.999999999999996								
	100	101	0.02850087756424975	0.12984876318071847	0.12227198706861923	176.0	176.0	176.0	0	0	1	-29.999999999999996	29.999999999999996								
	92	102	0.012321710740406116	0.05599866911392264	0.0015683714899541851	176.0	176.0	176.0	0	0	1	-29.999999999999996	29.999999999999996								
	101	102	0.024983130604218598	0.11374433425504299	0.02485356739725443	176.0	176.0	176.0	0	0	1	-29.999999999999996	29.999999999999996								
	100	103	0.015913383443549506	0.05221578941434357	0.05516595840664054	151.0	151.0	151.0	0	0	1	-29.999999999999996	29.999999999999996								
	100	104	0.044134143155695846	0.1996311564661401	0.08284663666548354	141.0	141.0	141.0	0	0	1	-29.999999999999996	29.999999999999996								
	103	104	0.04827273775890707	0.16408587223657167	0.0015686709556173022	153.0	153.0	153.0	0	0	1	-29.999999999999996	29.999999999999996								
	103	105	0.05341834699898183	0.1622519883125699	0.0015687380181146416	145.0	145.0	145.0	0	0	1	-29.999999999999996	29.999999999999996								
	100	106	0.06272537751924907	0.2374233286398489	0.02402188325109248	124.0	124.0	124.0	0	0	1	-29.999999999999996	29.999999999999996								
	104	105	0.009868117245547436	0.037526643041687575	0.0015685831909032259	161.0	161.0	161.0	0	0	1	-29.999999999999996	29.999999999999996								
	105	106	0.014040828464148654	0.054859522626006796	0.015578452112361117	164.0	164.0	164.0	0	0	1	-29.999999999999996	29.999999999999996								
	105	107	0.05447489961783255	0.18809257741522709	0.33206499452143373	154.0	154.0	154.0	0	0	1	-29.999999999999996	29.999999999999996								
	105	108	0.02593446998335271	0.06985414710306498	0.03969479600443594	137.0	137.0	137.0	0	0	1	-29.999999999999996	29.999999999999996								
	106	107	0.05301243359005941	0.1830429305832995	0.001568398750319869	154.0	154.0	154.0	0	0	1	-29.999999999999996	29.999999999999996								
	108	109	0.010471903114519803	0.02872293425581845	0.03033183777337949	138.0	138.0	138.0	0	0	1	-29.999999999999996	29.999999999999996								
	103	110	0.040698401281538	0.18890476483438945	0.0015695473984629147	159.0	159.0	159.0	0	0	1	-29.999999999999996	29.999999999999996								
	109	110	0.028411064178794285	0.07787493128604259	0.11945743194413896	138.0	138.0	138.0	0	0	1	-29.999999999999996	29.999999999999996								
	110	111	0.022285806245597044	0.07648083503988987	0.20601110313979498	154.0	154.0	154.0	0	0	1	-29.999999999999996	29.999999999999996								
	110	112	0.024220596919698367	0.06275782196978981	0.20946510714974392	135.0	135.0	135.0	0	0	1	-29.999999999999996	29.999999999999996								
	17	113	0.009081280474718675	0.029939380314559155	0.0015726499915564756	151.0	151.0	151.0	0	0	1	-29.999999999999996	29.999999999999996								
	32	113	0.06182336709118442	0.20406737361661356	0.03759023095733795	139.0	139.0	139.0	0	0	1	-29.999999999999996	29.999999999999996								
	32	114	0.013413779108053372	0.06080913192690607	0.04059284420927748	176.0	176.0	176.0	0	0	1	-29.999999999999996	29.999999999999996								
	27	115	0.01636320734140502	0.07393375994698605	0.0015687296134138452	175.0	175.0	175.0	0	0	1	-29.999999999999996	29.999999999999996								
	114	115	0.0023049986295354363	0.010422602498636746	0.0015712116135723215	175.0	175.0	175.0	0	0	1	-29.999999999999996	29.999999999999996								
	68	116	0.00033972080540708543	0.004046674299650922	0.26710137637178066	7218.000000000001	7218.000000000001	7218.000000000001	1.0	0.0	1	-29.999999999999996	29.999999999999996								
	12	117	0.0314398945546892	0.13378678507620684	0.04094649746920872	170.0	170.0	170.0	0	0	1	-29.999999999999996	29.999999999999996								
	75	118	0.014501597592434948	0.048105299594185254	0.01940150283441805	151.0	151.0	151.0	0	0	1	-29.999999999999996	29.999999999999996								
	76	118	0.01643130161764591	0.05450382974476968	0.0015690109835361054	151.0	151.0	151.0	0	0	1	-29.999999999999996	29.999999999999996								
];

%%-----  OPF Data  -----%%
%% cost data
%    1    startup    shutdown    n    x1    y1    ...    xn    yn
%    2    startup    shutdown    n    c(n-1)    ...    c0
mpc.gencost = [
	2	0.0	0.0	2	0.0	0.0
	2	0.0	0.0	2	0.0	0.0
	2	0.0	0.0	2	0.0	0.0
	2	0.0	0.0	2	0.0	0.0
	2	0.0	0.0	2	24.983420000000002	0.0
	2	0.0	0.0	2	124.581564	0.0
	2	0.0	0.0	2	0.0	0.0
	2	0.0	0.0	2	0.0	0.0
	2	0.0	0.0	2	0.0	0.0
	2	0.0	0.0	2	0.0	0.0
	2	0.0	0.0	2	28.948321	0.0
	2	0.0	0.0	2	22.22098	0.0
	2	0.0	0.0	2	0.0	0.0
	2	0.0	0.0	2	25.993982000000003	0.0
	2	0.0	0.0	2	0.0	0.0
	2	0.0	0.0	2	0.0	0.0
	2	0.0	0.0	2	0.0	0.0
	2	0.0	0.0	2	0.0	0.0
	2	0.0	0.0	2	0.0	0.0
	2	0.0	0.0	2	24.202306	0.0
	2	0.0	0.0	2	16.673942	0.0
	2	0.0	0.0	2	27.277343	0.0
	2	0.0	0.0	2	0.0	0.0
	2	0.0	0.0	2	0.0	0.0
	2	0.0	0.0	2	24.861868	0.0
	2	0.0	0.0	2	16.056042	0.0
	2	0.0	0.0	2	0.0	0.0
	2	0.0	0.0	2	34.781778	0.0
	2	0.0	0.0	2	32.668781	0.0
	2	0.0	0.0	2	25.758442000000002	0.0
	2	0.0	0.0	2	0.0	0.0
	2	0.0	0.0	2	0.0	0.0
	2	0.0	0.0	2	0.0	0.0
	2	0.0	0.0	2	0.0	0.0
	2	0.0	0.0	2	0.0	0.0
	2	0.0	0.0	2	0.0	0.0
	2	0.0	0.0	2	24.600772	0.0
	2	0.0	0.0	2	0.0	0.0
	2	0.0	0.0	2	34.072633	0.0
	2	0.0	0.0	2	24.605102	0.0
	2	0.0	0.0	2	0.0	0.0
	2	0.0	0.0	2	0.0	0.0
	2	0.0	0.0	2	0.0	0.0
	2	0.0	0.0	2	0.0	0.0
	2	0.0	0.0	2	12.61217	0.0
	2	0.0	0.0	2	28.649471	0.0
	2	0.0	0.0	2	0.0	0.0
	2	0.0	0.0	2	0.0	0.0
	2	0.0	0.0	2	0.0	0.0
	2	0.0	0.0	2	0.0	0.0
	2	0.0	0.0	2	35.043401	0.0
	2	0.0	0.0	2	0.0	0.0
	2	0.0	0.0	2	0.0	0.0
	2	0.0	0.0	2	0.0	0.0
];

